
OS:Version,
  {f0cfb0a0-8758-4ada-89a6-faa07e8d8a0f}, !- Handle
  1.11.0;                                 !- Version Identifier

OS:ClimateZones,
  {8a3ac41c-57d4-48e4-a48e-1f232e262211}, !- Handle
  ,                                       !- Active Institution
  ,                                       !- Active Year
  ASHRAE,                                 !- Climate Zone Institution Name 1
  ANSI/ASHRAE Standard 169,               !- Climate Zone Document Name 1
  2006,                                   !- Climate Zone Document Year 1
  ,                                       !- Climate Zone Value 1
  CEC,                                    !- Climate Zone Institution Name 2
  California Climate Zone Descriptions,   !- Climate Zone Document Name 2
  1995,                                   !- Climate Zone Document Year 2
  ;                                       !- Climate Zone Value 2

OS:LifeCycleCost:Parameters,
  {1d4d0f18-e6dd-45c8-896c-f4f2a89e6ae5}, !- Handle
  FEMP,                                   !- Analysis Type
  ,                                       !- Discounting Convention
  ,                                       !- Inflation Approach
  ,                                       !- Real Discount Rate
  ,                                       !- Nominal Discount Rate
  ,                                       !- Inflation
  ,                                       !- Base Date Month
  ,                                       !- Base Date Year
  ,                                       !- Service Date Month
  ,                                       !- Service Date Year
  ,                                       !- Length of Study Period in Years
  ,                                       !- Tax Rate
  ,                                       !- Depreciation Method
  Yes;                                    !- Use NIST Fuel Escalation Rates

OS:YearDescription,
  {c1349a5a-d7e1-4ed9-8e5b-24480649c25c}; !- Handle

OS:RadianceParameters,
  {8297fd56-36de-4b79-a182-b7636f4ae3e3}, !- Handle
  1,                                      !- Accumulated Rays per Record
  0,                                      !- Direct Threshold
  1,                                      !- Direct Certainty
  1,                                      !- Direct Jitter
  1,                                      !- Direct Pretest
  6,                                      !- Ambient Bounces VMX
  2,                                      !- Ambient Bounces DMX
  4050,                                   !- Ambient Divisions VMX
  512,                                    !- Ambient Divisions DMX
  256,                                    !- Ambient Supersamples
  0.001,                                  !- Limit Weight VMX
  0.001,                                  !- Limit Weight DMX
  500,                                    !- Klems Sampling Density
  146;                                    !- Sky Discretization Resolution

OS:SimulationControl,
  {7c57f4fc-548f-44e7-a438-1feca6a75629}; !- Handle

OS:Sizing:Parameters,
  {ee365675-827e-489e-9a24-0f596988dec4}, !- Handle
  1.25,                                   !- Heating Sizing Factor
  1.15;                                   !- Cooling Sizing Factor

OS:ProgramControl,
  {8a7b938e-cdcb-40af-82b1-79c267c36bae}; !- Handle

OS:Timestep,
  {31824a36-2f0f-4919-a534-cdb00e20d2e0}, !- Handle
  6;                                      !- Number of Timesteps per Hour

OS:OutputControl:ReportingTolerances,
  {275082a5-6cfd-4756-972e-8810ab253e29}; !- Handle

OS:ConvergenceLimits,
  {fcca1605-8471-4f2f-a485-a59582311771}; !- Handle

OS:ShadowCalculation,
  {d875de65-75c7-4d9d-883e-07bd79421b67}, !- Handle
  7,                                      !- Calculation Frequency
  15000;                                  !- Maximum Figures in Shadow Overlap Calculations

OS:SurfaceConvectionAlgorithm:Inside,
  {5add9a33-b760-4e82-a0f9-3ae0e369b9c4}, !- Handle
  TARP;                                   !- Algorithm

OS:SurfaceConvectionAlgorithm:Outside,
  {0257be16-14fc-418e-bc73-178201ccc4ec}, !- Handle
  DOE-2;                                  !- Algorithm

OS:HeatBalanceAlgorithm,
  {5a22c4c4-a6a6-4769-b0a8-f79498f98a6d}, !- Handle
  ConductionTransferFunction,             !- Algorithm
  200;                                    !- Surface Temperature Upper Limit {C}

OS:ZoneAirHeatBalanceAlgorithm,
  {24c912f8-6f7f-4792-8ea0-a8d47b3c41a1}, !- Handle
  AnalyticalSolution;                     !- Algorithm

OS:ZoneAirContaminantBalance,
  {07e7d420-4b9b-4760-8a70-01b36aa6074f}; !- Handle

OS:ZoneCapacitanceMultiplier:ResearchSpecial,
  {91056672-db13-4057-9cb7-7ac44d24bfc5}, !- Handle
  ,                                       !- Temperature Capacity Multiplier
  ,                                       !- Humidity Capacity Multiplier
  ;                                       !- Carbon Dioxide Capacity Multiplier

OS:RunPeriod,
  {17c33f47-c9b9-463a-84bc-12596f349148}, !- Handle
  Run Period 1,                           !- Name
  1,                                      !- Begin Month
  1,                                      !- Begin Day of Month
  12,                                     !- End Month
  31,                                     !- End Day of Month
  ,                                       !- Use Weather File Holidays and Special Days
  ,                                       !- Use Weather File Daylight Saving Period
  ,                                       !- Apply Weekend Holiday Rule
  ,                                       !- Use Weather File Rain Indicators
  ,                                       !- Use Weather File Snow Indicators
  ;                                       !- Number of Times Runperiod to be Repeated

OS:Building,
  {e0ce3521-4e53-4eca-8017-2f1c8dec2b50}, !- Handle
  Building 1,                             !- Name
  ,                                       !- Building Sector Type
  ,                                       !- North Axis {deg}
  ,                                       !- Nominal Floor to Floor Height {m}
  {1382870f-9f3a-4fc1-9490-21323f25ddda}, !- Space Type Name
  {06be4e55-3d45-47d4-b800-fa4ab9720e6f}, !- Default Construction Set Name
  ,                                       !- Default Schedule Set Name
  ,                                       !- Standards Number of Stories
  ,                                       !- Standards Number of Above Ground Stories
  ,                                       !- Standards Building Type
  ,                                       !- Standards Number of Living Units
  ,                                       !- Relocatable
  ;                                       !- Nominal Floor to Ceiling Height {m}

OS:Facility,
  {b6e6be84-f909-42a5-9deb-ef70c0296721}; !- Handle

OS:Site,
  {f38b0e3c-04e1-4822-940e-9b46c436222c}, !- Handle
  Site 1,                                 !- Name
  ,                                       !- Latitude {deg}
  ,                                       !- Longitude {deg}
  ,                                       !- Time Zone {hr}
  ,                                       !- Elevation {m}
  ;                                       !- Terrain

OS:SpaceType,
  {e2c73e1e-57bf-494c-a1a2-7140a8e410aa}, !- Handle
  189.1-2009 - LrgHotel - Banquet - CZ4-8, !- Name
  ,                                       !- Default Construction Set Name
  {56877630-895a-41a9-997b-46ac24fd03c1}, !- Default Schedule Set Name
  {438ce96e-2c06-4885-90b1-264a8dec90d8}, !- Group Rendering Name
  {7e6e292a-f90c-4180-adce-533171dee83e}, !- Design Specification Outdoor Air Object Name
  LargeHotel,                             !- Standards Building Type
  Banquet;                                !- Standards Space Type

OS:Rendering:Color,
  {438ce96e-2c06-4885-90b1-264a8dec90d8}, !- Handle
  Rendering Color 1,                      !- Name
  230,                                    !- Rendering Red Value
  196,                                    !- Rendering Green Value
  120;                                    !- Rendering Blue Value

OS:DefaultScheduleSet,
  {56877630-895a-41a9-997b-46ac24fd03c1}, !- Handle
  189.1-2009 - LrgHotel - Banquet - CZ4-8 Schedule Set, !- Name
  ,                                       !- Hours of Operation Schedule Name
  {6829b8c1-e1df-4d30-9240-df135836d0fe}, !- Number of People Schedule Name
  {c2bbd4eb-6a11-4b0a-b3b2-85e99ff887cf}, !- People Activity Level Schedule Name
  {a6759d56-f0ad-45ab-8215-f629a83a57cc}, !- Lighting Schedule Name
  {4abc096f-9671-49e7-8908-f51154895759}, !- Electric Equipment Schedule Name
  ,                                       !- Gas Equipment Schedule Name
  ,                                       !- Hot Water Equipment Schedule Name
  {65f6edb9-9318-4b6d-8d5b-50d36de7d17b}, !- Infiltration Schedule Name
  ,                                       !- Steam Equipment Schedule Name
  ;                                       !- Other Equipment Schedule Name

OS:Lights:Definition,
  {9c29ec46-9f51-4a17-ab83-e354fe33bc42}, !- Handle
  189.1-2009 - LrgHotel - Banquet - CZ4-8 Lights Definition, !- Name
  Watts/Area,                             !- Design Level Calculation Method
  ,                                       !- Lighting Level {W}
  12.5937751875504,                       !- Watts per Space Floor Area {W/m2}
  ;                                       !- Watts per Person {W/person}

OS:Lights,
  {a43cb14c-9d99-4fd0-a4ad-28558d0c10e9}, !- Handle
  189.1-2009 - LrgHotel - Banquet - CZ4-8 Lights, !- Name
  {9c29ec46-9f51-4a17-ab83-e354fe33bc42}, !- Lights Definition Name
  {e2c73e1e-57bf-494c-a1a2-7140a8e410aa}; !- Space or SpaceType Name

OS:Schedule:Ruleset,
  {a6759d56-f0ad-45ab-8215-f629a83a57cc}, ! Handle
  LargeHotel Bldg Light,                  ! Name
  {a39017d8-a091-4ab4-88d4-4c61c642a49f}, ! Schedule Type Limits Name
  {b8d2e243-5b78-42f6-8f70-cef791200bb0}, ! Default Day Schedule Name
  {af436b16-0a55-4a1b-b34f-399bedf299d0}, ! Summer Design Day Schedule Name
  {0eae14cb-f59d-42d6-9235-ce50d6456cc8}; ! Winter Design Day Schedule Name

OS:ScheduleTypeLimits,
  {a39017d8-a091-4ab4-88d4-4c61c642a49f}, ! Handle
  Fraction,                               ! Name
  0,                                      ! Lower Limit Value
  1,                                      ! Upper Limit Value
  CONTINUOUS;                             ! Numeric Type

OS:Schedule:Day,
  {b8d2e243-5b78-42f6-8f70-cef791200bb0}, ! Handle
  LargeHotel Bldg Light Default Schedule, ! Name
  {a39017d8-a091-4ab4-88d4-4c61c642a49f}, ! Schedule Type Limits Name
  ,                                       ! Interpolate to Timestep
  1,                                      !- Hour 1
  0,                                      !- Minute 1
  0.2,                                    !- Value Until Time 1
  2,                                      !- Hour 2
  0,                                      !- Minute 2
  0.15,                                   !- Value Until Time 2
  5,                                      !- Hour 3
  0,                                      !- Minute 3
  0.1,                                    !- Value Until Time 3
  6,                                      !- Hour 4
  0,                                      !- Minute 4
  0.2,                                    !- Value Until Time 4
  7,                                      !- Hour 5
  0,                                      !- Minute 5
  0.4,                                    !- Value Until Time 5
  8,                                      !- Hour 6
  0,                                      !- Minute 6
  0.5,                                    !- Value Until Time 6
  10,                                     !- Hour 7
  0,                                      !- Minute 7
  0.4,                                    !- Value Until Time 7
  18,                                     !- Hour 8
  0,                                      !- Minute 8
  0.25,                                   !- Value Until Time 8
  19,                                     !- Hour 9
  0,                                      !- Minute 9
  0.6,                                    !- Value Until Time 9
  20,                                     !- Hour 10
  0,                                      !- Minute 10
  0.8,                                    !- Value Until Time 10
  21,                                     !- Hour 11
  0,                                      !- Minute 11
  0.9,                                    !- Value Until Time 11
  22,                                     !- Hour 12
  0,                                      !- Minute 12
  0.8,                                    !- Value Until Time 12
  23,                                     !- Hour 13
  0,                                      !- Minute 13
  0.6,                                    !- Value Until Time 13
  24,                                     !- Hour 14
  0,                                      !- Minute 14
  0.3;                                    !- Value Until Time 14

OS:Schedule:Day,
  {af436b16-0a55-4a1b-b34f-399bedf299d0}, ! Handle
  LargeHotel Bldg Light Summer Design Day, ! Name
  {a39017d8-a091-4ab4-88d4-4c61c642a49f}, ! Schedule Type Limits Name
  ,                                       ! Interpolate to Timestep
  24,                                     ! Hour 1
  0,                                      ! Minute 1
  1;                                      ! Value Until Time 1

OS:Schedule:Day,
  {0eae14cb-f59d-42d6-9235-ce50d6456cc8}, ! Handle
  LargeHotel Bldg Light Winter Design Day, ! Name
  {a39017d8-a091-4ab4-88d4-4c61c642a49f}, ! Schedule Type Limits Name
  ,                                       ! Interpolate to Timestep
  24,                                     ! Hour 1
  0,                                      ! Minute 1
  0;                                      ! Value Until Time 1

OS:Schedule:Rule,
  {d56a5eaf-3b13-4596-b858-e71e06a4d13c}, ! Handle
  LargeHotel Bldg Light Rule 1,           ! Name
  {a6759d56-f0ad-45ab-8215-f629a83a57cc}, ! Schedule Ruleset Name
  0,                                      ! Rule Order
  {af997a46-e9bf-4386-9f98-08b707cfdf47}, ! Day Schedule Name
  Yes,                                    ! Apply Sunday
  No,                                     ! Apply Monday
  No,                                     ! Apply Tuesday
  No,                                     ! Apply Wednesday
  No,                                     ! Apply Thursday
  No,                                     ! Apply Friday
  No,                                     ! Apply Saturday
  ,                                       ! Apply Holiday
  DateRange,                              ! Date Specification Type
  1,                                      ! Start Month
  1,                                      ! Start Day
  12,                                     ! End Month
  31;                                     ! End Day

OS:Schedule:Day,
  {af997a46-e9bf-4386-9f98-08b707cfdf47}, ! Handle
  LargeHotel Bldg Light Rule 1 Day Schedule, ! Name
  {a39017d8-a091-4ab4-88d4-4c61c642a49f}, ! Schedule Type Limits Name
  ,                                       ! Interpolate to Timestep
  2,                                      ! Hour 1
  0,                                      ! Minute 1
  0.29999999999999999,                    ! Value Until Time 1
  6,                                      ! Hour 2
  0,                                      ! Minute 2
  0.20000000000000001,                    ! Value Until Time 2
  7,                                      ! Hour 3
  0,                                      ! Minute 3
  0.29999999999999999,                    ! Value Until Time 3
  9,                                      ! Hour 4
  0,                                      ! Minute 4
  0.40000000000000002,                    ! Value Until Time 4
  13,                                     ! Hour 5
  0,                                      ! Minute 5
  0.29999999999999999,                    ! Value Until Time 5
  18,                                     ! Hour 6
  0,                                      ! Minute 6
  0.20000000000000001,                    ! Value Until Time 6
  19,                                     ! Hour 7
  0,                                      ! Minute 7
  0.5,                                    ! Value Until Time 7
  20,                                     ! Hour 8
  0,                                      ! Minute 8
  0.69999999999999996,                    ! Value Until Time 8
  21,                                     ! Hour 9
  0,                                      ! Minute 9
  0.80000000000000004,                    ! Value Until Time 9
  22,                                     ! Hour 10
  0,                                      ! Minute 10
  0.59999999999999998,                    ! Value Until Time 10
  23,                                     ! Hour 11
  0,                                      ! Minute 11
  0.5,                                    ! Value Until Time 11
  24,                                     ! Hour 12
  0,                                      ! Minute 12
  0.29999999999999999;                    ! Value Until Time 12

OS:Schedule:Rule,
  {556e4281-78c3-4f26-9002-5ff91b04063e}, ! Handle
  LargeHotel Bldg Light Rule 2,           ! Name
  {a6759d56-f0ad-45ab-8215-f629a83a57cc}, ! Schedule Ruleset Name
  1,                                      ! Rule Order
  {7ce38486-d957-4891-a6d6-c6ee70514c17}, ! Day Schedule Name
  No,                                     ! Apply Sunday
  No,                                     ! Apply Monday
  No,                                     ! Apply Tuesday
  No,                                     ! Apply Wednesday
  No,                                     ! Apply Thursday
  No,                                     ! Apply Friday
  Yes,                                    ! Apply Saturday
  ,                                       ! Apply Holiday
  DateRange,                              ! Date Specification Type
  1,                                      ! Start Month
  1,                                      ! Start Day
  12,                                     ! End Month
  31;                                     ! End Day

OS:Schedule:Day,
  {7ce38486-d957-4891-a6d6-c6ee70514c17}, ! Handle
  LargeHotel Bldg Light Rule 2 Day Schedule, ! Name
  {a39017d8-a091-4ab4-88d4-4c61c642a49f}, ! Schedule Type Limits Name
  ,                                       ! Interpolate to Timestep
  2,                                      ! Hour 1
  0,                                      ! Minute 1
  0.20000000000000001,                    ! Value Until Time 1
  6,                                      ! Hour 2
  0,                                      ! Minute 2
  0.10000000000000001,                    ! Value Until Time 2
  8,                                      ! Hour 3
  0,                                      ! Minute 3
  0.29999999999999999,                    ! Value Until Time 3
  10,                                     ! Hour 4
  0,                                      ! Minute 4
  0.40000000000000002,                    ! Value Until Time 4
  11,                                     ! Hour 5
  0,                                      ! Minute 5
  0.29999999999999999,                    ! Value Until Time 5
  18,                                     ! Hour 6
  0,                                      ! Minute 6
  0.25,                                   ! Value Until Time 6
  19,                                     ! Hour 7
  0,                                      ! Minute 7
  0.59999999999999998,                    ! Value Until Time 7
  22,                                     ! Hour 8
  0,                                      ! Minute 8
  0.69999999999999996,                    ! Value Until Time 8
  23,                                     ! Hour 9
  0,                                      ! Minute 9
  0.59999999999999998,                    ! Value Until Time 9
  24,                                     ! Hour 10
  0,                                      ! Minute 10
  0.29999999999999999;                    ! Value Until Time 10

OS:DesignSpecification:OutdoorAir,
  {7e6e292a-f90c-4180-adce-533171dee83e}, !- Handle
  189.1-2009 - LrgHotel - Banquet - CZ4-8 Ventilation, !- Name
  Sum,                                    !- Outdoor Air Method
  0.009438948864,                         !- Outdoor Air Flow per Person {m3/s-person}
  ,                                       !- Outdoor Air Flow per Floor Area {m3/s-m2}
  ,                                       !- Outdoor Air Flow Rate {m3/s}
  ,                                       !- Outdoor Air Flow Air Changes per Hour {1/hr}
  ;                                       !- Outdoor Air Flow Rate Fraction Schedule Name

OS:People:Definition,
  {ef4072c9-6e5c-46c3-942a-f8b821fc9885}, !- Handle
  189.1-2009 - LrgHotel - Banquet - CZ4-8 People Definition, !- Name
  People/Area,                            !- Number of People Calculation Method
  ,                                       !- Number of People {people}
  0.721181997919551,                      !- People per Space Floor Area {person/m2}
  ,                                       !- Space Floor Area per Person {m2/person}
  0.3;                                    !- Fraction Radiant

OS:People,
  {6a0c4787-6de8-4631-9468-82e5567e6465}, !- Handle
  189.1-2009 - LrgHotel - Banquet - CZ4-8 People, !- Name
  {ef4072c9-6e5c-46c3-942a-f8b821fc9885}, !- People Definition Name
  {e2c73e1e-57bf-494c-a1a2-7140a8e410aa}; !- Space or SpaceType Name

OS:Schedule:Ruleset,
  {6829b8c1-e1df-4d30-9240-df135836d0fe}, ! Handle
  LargeHotel Bldg Occ,                    ! Name
  {a39017d8-a091-4ab4-88d4-4c61c642a49f}, ! Schedule Type Limits Name
  {6d3f0bc0-4cba-4351-aad2-931f83cbdc27}, ! Default Day Schedule Name
  {07f8c0d0-2277-4296-8d07-bb0e6e21d237}, ! Summer Design Day Schedule Name
  {c9bcb9a3-93f6-4319-b64b-8d55b070169f}; ! Winter Design Day Schedule Name

OS:Schedule:Day,
  {6d3f0bc0-4cba-4351-aad2-931f83cbdc27}, ! Handle
  LargeHotel Bldg Occ Default Schedule,   ! Name
  {a39017d8-a091-4ab4-88d4-4c61c642a49f}, ! Schedule Type Limits Name
  ,                                       ! Interpolate to Timestep
  6,                                      !- Hour 1
  0,                                      !- Minute 1
  0.9,                                    !- Value Until Time 1
  7,                                      !- Hour 2
  0,                                      !- Minute 2
  0.7,                                    !- Value Until Time 2
  9,                                      !- Hour 3
  0,                                      !- Minute 3
  0.4,                                    !- Value Until Time 3
  15,                                     !- Hour 4
  0,                                      !- Minute 4
  0.2,                                    !- Value Until Time 4
  16,                                     !- Hour 5
  0,                                      !- Minute 5
  0.3,                                    !- Value Until Time 5
  19,                                     !- Hour 6
  0,                                      !- Minute 6
  0.5,                                    !- Value Until Time 6
  21,                                     !- Hour 7
  0,                                      !- Minute 7
  0.7,                                    !- Value Until Time 7
  22,                                     !- Hour 8
  0,                                      !- Minute 8
  0.8,                                    !- Value Until Time 8
  24,                                     !- Hour 9
  0,                                      !- Minute 9
  0.9;                                    !- Value Until Time 9

OS:Schedule:Day,
  {07f8c0d0-2277-4296-8d07-bb0e6e21d237}, ! Handle
  LargeHotel Bldg Occ Summer Design Day,  ! Name
  {a39017d8-a091-4ab4-88d4-4c61c642a49f}, ! Schedule Type Limits Name
  ,                                       ! Interpolate to Timestep
  24,                                     ! Hour 1
  0,                                      ! Minute 1
  1;                                      ! Value Until Time 1

OS:Schedule:Day,
  {c9bcb9a3-93f6-4319-b64b-8d55b070169f}, ! Handle
  LargeHotel Bldg Occ Winter Design Day,  ! Name
  {a39017d8-a091-4ab4-88d4-4c61c642a49f}, ! Schedule Type Limits Name
  ,                                       ! Interpolate to Timestep
  24,                                     ! Hour 1
  0,                                      ! Minute 1
  0;                                      ! Value Until Time 1

OS:Schedule:Rule,
  {957cb5cc-f10d-4dff-89e2-e218f2a596b3}, ! Handle
  LargeHotel Bldg Occ Rule 1,             ! Name
  {6829b8c1-e1df-4d30-9240-df135836d0fe}, ! Schedule Ruleset Name
  0,                                      ! Rule Order
  {f775066d-7510-4539-8894-4740a617b56d}, ! Day Schedule Name
  Yes,                                    ! Apply Sunday
  No,                                     ! Apply Monday
  No,                                     ! Apply Tuesday
  No,                                     ! Apply Wednesday
  No,                                     ! Apply Thursday
  No,                                     ! Apply Friday
  No,                                     ! Apply Saturday
  ,                                       ! Apply Holiday
  DateRange,                              ! Date Specification Type
  1,                                      ! Start Month
  1,                                      ! Start Day
  12,                                     ! End Month
  31;                                     ! End Day

OS:Schedule:Day,
  {f775066d-7510-4539-8894-4740a617b56d}, ! Handle
  LargeHotel Bldg Occ Rule 1 Day Schedule, ! Name
  {a39017d8-a091-4ab4-88d4-4c61c642a49f}, ! Schedule Type Limits Name
  ,                                       ! Interpolate to Timestep
  8,                                      ! Hour 1
  0,                                      ! Minute 1
  0.69999999999999996,                    ! Value Until Time 1
  11,                                     ! Hour 2
  0,                                      ! Minute 2
  0.5,                                    ! Value Until Time 2
  13,                                     ! Hour 3
  0,                                      ! Minute 3
  0.29999999999999999,                    ! Value Until Time 3
  16,                                     ! Hour 4
  0,                                      ! Minute 4
  0.20000000000000001,                    ! Value Until Time 4
  17,                                     ! Hour 5
  0,                                      ! Minute 5
  0.29999999999999999,                    ! Value Until Time 5
  19,                                     ! Hour 6
  0,                                      ! Minute 6
  0.40000000000000002,                    ! Value Until Time 6
  21,                                     ! Hour 7
  0,                                      ! Minute 7
  0.59999999999999998,                    ! Value Until Time 7
  24,                                     ! Hour 8
  0,                                      ! Minute 8
  0.80000000000000004;                    ! Value Until Time 8

OS:Schedule:Rule,
  {4bc61919-0180-4122-8d3d-d3bbd3a37688}, ! Handle
  LargeHotel Bldg Occ Rule 2,             ! Name
  {6829b8c1-e1df-4d30-9240-df135836d0fe}, ! Schedule Ruleset Name
  1,                                      ! Rule Order
  {5b9920df-b446-4be5-9079-827666458744}, ! Day Schedule Name
  No,                                     ! Apply Sunday
  No,                                     ! Apply Monday
  No,                                     ! Apply Tuesday
  No,                                     ! Apply Wednesday
  No,                                     ! Apply Thursday
  No,                                     ! Apply Friday
  Yes,                                    ! Apply Saturday
  ,                                       ! Apply Holiday
  DateRange,                              ! Date Specification Type
  1,                                      ! Start Month
  1,                                      ! Start Day
  12,                                     ! End Month
  31;                                     ! End Day

OS:Schedule:Day,
  {5b9920df-b446-4be5-9079-827666458744}, ! Handle
  LargeHotel Bldg Occ Rule 2 Day Schedule, ! Name
  {a39017d8-a091-4ab4-88d4-4c61c642a49f}, ! Schedule Type Limits Name
  ,                                       ! Interpolate to Timestep
  6,                                      ! Hour 1
  0,                                      ! Minute 1
  0.90000000000000002,                    ! Value Until Time 1
  7,                                      ! Hour 2
  0,                                      ! Minute 2
  0.69999999999999996,                    ! Value Until Time 2
  9,                                      ! Hour 3
  0,                                      ! Minute 3
  0.5,                                    ! Value Until Time 3
  17,                                     ! Hour 4
  0,                                      ! Minute 4
  0.29999999999999999,                    ! Value Until Time 4
  18,                                     ! Hour 5
  0,                                      ! Minute 5
  0.5,                                    ! Value Until Time 5
  21,                                     ! Hour 6
  0,                                      ! Minute 6
  0.59999999999999998,                    ! Value Until Time 6
  24,                                     ! Hour 7
  0,                                      ! Minute 7
  0.69999999999999996;                    ! Value Until Time 7

OS:Schedule:Ruleset,
  {c2bbd4eb-6a11-4b0a-b3b2-85e99ff887cf}, ! Handle
  LargeHotel Activity,                    ! Name
  {13091118-8e34-4e64-abe4-fe7526abe391}, ! Schedule Type Limits Name